Simulacoes/30/06 - EE/ieee30_6_0600_EE.txt
================================================================================= 
=== UFF - Doutorado em Computação - Aplicaçoes em Sistemas de Potencia        === 
=== ESTIMADOR DE ESTADO MÍNIMOS QUADRADOS PONDERADOS INCLUINDO MEDIDAS DE PMU === 
=== Desenvolvido por: Rui Menezes de Moraes - 2009                            === 
================================================================================= 
Arquivo de medidores:          F:\Documents\Uff\Artigos\SimSEP\VERSAO WELDAN V2\Codigos\Med\ieee30_6_0600.med
Arquivo do sistema:            F:\Documents\Uff\Artigos\SimSEP\VERSAO WELDAN V2\Codigos\Carga\ieee30_6_0600.txt
Tolerância entre iteraçoes:     1.00e-04
Limite de iteraçoes:           100

--- DADOS DA REDE --------------------------------------------------------------- 
Data do caso:                  08/20/93
Origem:                        UW ARCHIVE          
MVA base:                      100
Ano:                           1961
Estação:                       W
Identificação:                 IEEE 30 Bus Test Case
Número de barras:              30 
Número de ramos:               41 
Referência na barra:           1

--- TELEMEDIDAS ------------------------------------------------------------------
    Tipo 1 = Fluxo de potencia ativa        Tipo  6 = Módulo da tensão            
    Tipo 2 = Injeção de potencia ativa      Tipo  7 = Corrente de ramo (real)     
    Tipo 3 = Ângulo de fase da tensão       Tipo  8 = Corrente de ramo (imag)     
    Tipo 4 = Fluxo de potencia reativa      Tipo  9 = Injeção de corrente (real)  
    Tipo 5 = Injeção de potencia reativa    Tipo 10 = Injeção de corrente (imag)  
----------------------------------------------------------------------------------
   N    D    P TP  PN ST   Exa   FS       DP      V_Ref      V_Med          E(%) 
----------------------------------------------------------------------------------
   1    0    1  6   0  0 0.015 01.1  0.00530   +1.06000   +1.05078     -0.869811 
   2    0    2  6   0  0 0.015 01.1  0.00522   +1.04500   +1.04184     -0.302392 
   3    0    3  6   0  0 0.015 01.1  0.00513   +1.02620   +1.03814     +1.163516 
   4    0    4  6   0  0 0.015 01.1  0.00509   +1.01757   +1.01014     -0.730171 
   5    0    5  6   0  0 0.015 01.1  0.00505   +1.01000   +1.02414     +1.400000 
   6    0    6  6   0  0 0.015 01.1  0.00507   +1.01389   +1.01752     +0.358027 
   7    0    7  6   0  0 0.015 01.1  0.00503   +1.00641   +0.99631     -1.003567 
   8    0    8  6   0  0 0.015 01.1  0.00505   +1.01000   +1.01988     +0.978218 
   9    0    9  6   0  0 0.015 01.1  0.00528   +1.05494   +1.05986     +0.466377 
  10    0   10  6   0  0 0.015 01.1  0.00526   +1.05130   +1.05276     +0.138876 
  11    0   11  6   0  0 0.015 01.1  0.00541   +1.08200   +1.07393     -0.745841 
  12    0   12  6   0  0 0.015 01.1  0.00532   +1.06358   +1.04891     -1.379304 
  13    0   13  6   0  0 0.015 01.1  0.00536   +1.07100   +1.06243     -0.800187 
  14    0   14  6   0  0 0.015 01.1  0.00526   +1.05178   +1.04740     -0.416437 
  15    0   15  6   0  0 0.015 01.1  0.00524   +1.04782   +1.05201     +0.399878 
  16    0   16  6   0  0 0.015 01.1  0.00526   +1.05213   +1.06747     +1.457995 
  17    0   17  6   0  0 0.015 01.1  0.00524   +1.04770   +1.03850     -0.878114 
  18    0   18  6   0  0 0.015 01.1  0.00520   +1.03955   +1.04756     +0.770526 
  19    0   19  6   0  0 0.015 01.1  0.00519   +1.03707   +1.04909     +1.159035 
  20    0   20  6   0  0 0.015 01.1  0.00520   +1.04000   +1.03913     -0.083654 
  21    0   21  6   0  0 0.015 01.1  0.00521   +1.04195   +1.03129     -1.023082 
  22    0   22  6   0  0 0.015 01.1  0.00521   +1.04247   +1.05220     +0.933360 
  23    0   23  6   0  0 0.015 01.1  0.00520   +1.03948   +1.03875     -0.070227 
  24    0   24  6   0  0 0.015 01.1  0.00517   +1.03500   +1.02308     -1.151691 
  25    0   25  6   0  0 0.015 01.1  0.00515   +1.03085   +1.04247     +1.127225 
  26    0   26  6   0  0 0.015 01.1  0.00509   +1.01710   +1.02123     +0.406056 
  27    0   27  6   0  0 0.015 01.1  0.00517   +1.03484   +1.02234     -1.207916 
  28    0   28  6   0  0 0.015 01.1  0.00505   +1.01098   +1.02337     +1.225544 
  29    0   29  6   0  0 0.015 01.1  0.00510   +1.01953   +1.00531     -1.394760 
  30    0   30  6   0  0 0.015 01.1  0.00505   +1.01064   +0.99668     -1.381303 
  31    0    1  2   0  0 0.020 01.0  0.01094   +1.38127   +1.41335     +2.322500 
  32    0    2  2   0  0 0.020 01.0  0.00732   +0.83800   +0.84618     +0.976134 
  33    0    3  2   0  0 0.020 01.0  0.00186   -0.01900   -0.02038     +7.263158 
  34    0    4  2   0  0 0.020 01.0  0.00189   -0.02300   -0.02295     -0.217391 
  35    0    5  2   0  0 0.020 01.0  0.00669   -0.74400   -0.73342     -1.422043 
  36    0    6  2   0  0 0.020 01.0  0.00173   +0.00000   -0.00469     +0.000000 
  37    0    7  2   0  0 0.020 01.0  0.00293   -0.18000   -0.17602     -2.211111 
  38    0    8  2   0  0 0.020 01.0  0.00331   -0.23700   -0.23300     -1.687764 
  39    0    9  2   0  0 0.020 01.0  0.00173   +0.00000   -0.00043     +0.000000 
  40    0   10  2   0  0 0.020 01.0  0.00272   -0.14800   -0.14666     -0.905405 
  41    0   11  2   0  0 0.020 01.0  0.00173   +0.00000   -0.00167     +0.000000 
  42    0   12  2   0  0 0.020 01.0  0.00232   -0.08800   -0.09258     +5.204545 
  43    0   13  2   0  0 0.020 01.0  0.00173   +0.00000   -0.00105     +0.000000 
  44    0   14  2   0  0 0.020 01.0  0.00206   -0.04900   -0.04381    -10.591837 
  45    0   15  2   0  0 0.020 01.0  0.00217   -0.06500   -0.06856     +5.476923 
  46    0   16  2   0  0 0.020 01.0  0.00192   -0.02800   -0.02960     +5.714286 
  47    0   17  2   0  0 0.020 01.0  0.00221   -0.07100   -0.07332     +3.267606 
  48    0   18  2   0  0 0.020 01.0  0.00190   -0.02500   -0.02975    +19.000000 
  49    0   19  2   0  0 0.020 01.0  0.00223   -0.07500   -0.07483     -0.226667 
  50    0   20  2   0  0 0.020 01.0  0.00185   -0.01700   -0.01331    -21.705882 
  51    0   21  2   0  0 0.020 01.0  0.00265   -0.13800   -0.13156     -4.666667 
  52    0   22  2   0  0 0.020 01.0  0.00173   -0.00000   +0.00233     +0.000000 
  53    0   23  2   0  0 0.020 01.0  0.00190   -0.02500   -0.02633     +5.320000 
  54    0   24  2   0  0 0.020 01.0  0.00219   -0.06900   -0.07166     +3.855072 
  55    0   25  2   0  0 0.020 01.0  0.00173   -0.00000   +0.00199     +0.000000 
  56    0   26  2   0  0 0.020 01.0  0.00192   -0.02800   -0.02362    -15.642857 
  57    0   27  2   0  0 0.020 01.0  0.00173   +0.00000   +0.00442     +0.000000 
  58    0   28  2   0  0 0.020 01.0  0.00173   -0.00000   -0.00435     +0.000000 
  59    0   29  2   0  0 0.020 01.0  0.00186   -0.01900   -0.01919     +1.000000 
  60    0   30  2   0  0 0.020 01.0  0.00229   -0.08400   -0.08912     +6.095238 
  61    0    1  5   0  0 0.020 01.0  0.00210   +0.05540   +0.05229     -5.613718 
  62    0    2  5   0  0 0.020 01.0  0.00207   +0.05097   +0.05575     +9.378066 
  63    0    3  5   0  0 0.020 01.0  0.00179   -0.00900   -0.01227    +36.333333 
  64    0    4  5   0  0 0.020 01.0  0.00177   -0.00500   -0.00901    +80.200000 
  65    0    5  5   0  0 0.020 01.0  0.00210   +0.05432   +0.05487     +1.012518 
  66    0    6  5   0  0 0.020 01.0  0.00173   +0.00000   -0.00193     +0.000000 
  67    0    7  5   0  0 0.020 01.0  0.00231   -0.08600   -0.08763     +1.895349 
  68    0    8  5   0  0 0.020 01.0  0.00211   -0.05612   -0.05243     -6.575196 
  69    0    9  5   0  0 0.020 01.0  0.00173   +0.00000   +0.00353     +0.000000 
  70    0   10  5   0  0 0.020 01.0  0.00207   -0.05100   -0.04876     -4.392157 
  71    0   11  5   0  0 0.020 01.0  0.00267   +0.14079   +0.13945     -0.951772 
  72    0   12  5   0  0 0.020 01.0  0.00213   -0.05900   -0.05718     -3.084746 
  73    0   13  5   0  0 0.020 01.0  0.00211   +0.05673   +0.05311     -6.381103 
  74    0   14  5   0  0 0.020 01.0  0.00182   -0.01300   -0.01172     -9.846154 
  75    0   15  5   0  0 0.020 01.0  0.00187   -0.02000   -0.01804     -9.800000 
  76    0   16  5   0  0 0.020 01.0  0.00183   -0.01400   -0.01289     -7.928571 
  77    0   17  5   0  0 0.020 01.0  0.00204   -0.04600   -0.04788     +4.086957 
  78    0   18  5   0  0 0.020 01.0  0.00178   -0.00700   -0.00845    +20.714286 
  79    0   19  5   0  0 0.020 01.0  0.00191   -0.02700   -0.03077    +13.962963 
  80    0   20  5   0  0 0.020 01.0  0.00177   -0.00600   -0.00286    -52.333333 
  81    0   21  5   0  0 0.020 01.0  0.00232   -0.08800   -0.08810     +0.113636 
  82    0   22  5   0  0 0.020 01.0  0.00173   +0.00000   -0.00151     +0.000000 
  83    0   23  5   0  0 0.020 01.0  0.00182   -0.01300   -0.01000    -23.076923 
  84    0   24  5   0  0 0.020 01.0  0.00209   -0.05300   -0.05630     +6.226415 
  85    0   25  5   0  0 0.020 01.0  0.00173   +0.00000   +0.00359     +0.000000 
  86    0   26  5   0  0 0.020 01.0  0.00185   -0.01800   -0.01448    -19.555556 
  87    0   27  5   0  0 0.020 01.0  0.00173   +0.00000   +0.00360     +0.000000 
  88    0   28  5   0  0 0.020 01.0  0.00173   +0.00000   -0.00135     +0.000000 
  89    0   29  5   0  0 0.020 01.0  0.00178   -0.00700   -0.00825    +17.857143 
  90    0   30  5   0  0 0.020 01.0  0.00183   -0.01500   -0.01103    -26.466667 
  91    1    2  1   0  0 0.020 01.0  0.00702   +0.79326   +0.79174     -0.191614 
  92    1    3  1   0  0 0.020 01.0  0.00565   +0.58801   +0.59040     +0.406456 
  93    2    4  1   0  0 0.020 01.0  0.00447   +0.41124   +0.41649     +1.276627 
  94    3    4  1   0  0 0.020 01.0  0.00543   +0.55484   +0.56986     +2.707087 
  95    2    5  1   0  0 0.020 01.0  0.00621   +0.67135   +0.67307     +0.256200 
  96    2    6  1   0  0 0.020 01.0  0.00532   +0.53791   +0.54227     +0.810545 
  97    4    6  1   0  0 0.020 01.0  0.00544   +0.55597   +0.55828     +0.415490 
  98    5    7  1   0  0 0.020 01.0  0.00235   -0.09232   -0.08630     -6.520797 
  99    6    7  1   0  0 0.020 01.0  0.00357   +0.27488   +0.28266     +2.830326 
 100    6    8  1   0  0 0.020 01.0  0.00330   +0.23461   +0.22807     -2.787605 
 101    6    9  1   0  0 0.020 01.0  0.00347   +0.26111   +0.25441     -2.565968 
 102    6   10  1   0  0 0.020 01.0  0.00273   +0.14939   +0.14519     -2.811433 
 103    9   11  1   0  0 0.020 01.0  0.00173   -0.00000   +0.00262     +0.000000 
 104    9   10  1   0  0 0.020 01.0  0.00347   +0.26111   +0.25483     -2.405117 
 105    4   12  1   0  0 0.020 01.0  0.00423   +0.37431   +0.38656     +3.272688 
 106   12   13  1   0  0 0.020 01.0  0.00173   +0.00000   +0.00218     +0.000000 
 107   12   14  1   0  0 0.020 01.0  0.00216   +0.06433   +0.06012     -6.544381 
 108   12   15  1   0  0 0.020 01.0  0.00274   +0.15068   +0.15656     +3.902310 
 109   12   16  1   0  0 0.020 01.0  0.00221   +0.07129   +0.07672     +7.616777 
 110   14   15  1   0  0 0.020 01.0  0.00183   +0.01485   +0.01992    +34.141414 
 111   16   17  1   0  0 0.020 01.0  0.00202   +0.04280   +0.04366     +2.009346 
 112   15   18  1   0  0 0.020 01.0  0.00210   +0.05532   +0.05611     +1.428055 
 113   18   19  1   0  0 0.020 01.0  0.00193   +0.03000   +0.02625    -12.500000 
 114   19   20  1   0  0 0.020 01.0  0.00203   -0.04505   -0.04489     -0.355161 
 115   10   20  1   0  0 0.020 01.0  0.00215   +0.06254   +0.06316     +0.991366 
 116   10   17  1   0  0 0.020 01.0  0.00192   +0.02835   +0.02449    -13.615520 
 117   10   21  1   0  0 0.020 01.0  0.00251   +0.11664   +0.11655     -0.077160 
 118   10   22  1   0  0 0.020 01.0  0.00210   +0.05497   +0.05541     +0.800437 
 119   21   22  1   0  0 0.020 01.0  0.00188   -0.02198   -0.02537    +15.423112 
 120   15   23  1   0  0 0.020 01.0  0.00202   +0.04367   +0.04516     +3.411953 
 121   22   24  1   0  0 0.020 01.0  0.00195   +0.03271   +0.02716    -16.967288 
 122   23   24  1   0  0 0.020 01.0  0.00186   +0.01845   +0.01643    -10.948509 
 123   24   25  1   0  0 0.020 01.0  0.00185   -0.01806   -0.01769     -2.048726 
 124   25   26  1   0  0 0.020 01.0  0.00192   +0.02827   +0.02628     -7.039264 
 125   25   27  1   0  0 0.020 01.0  0.00204   -0.04649   -0.04523     -2.710260 
 126   28   27  1   0  0 0.020 01.0  0.00274   +0.15142   +0.14915     -1.499141 
 127   27   29  1   0  0 0.020 01.0  0.00206   +0.04881   +0.04430     -9.239910 
 128   27   30  1   0  0 0.020 01.0  0.00211   +0.05590   +0.06113     +9.355993 
 129   29   30  1   0  0 0.020 01.0  0.00193   +0.02929   +0.03091     +5.530898 
 130    8   28  1   0  0 0.020 01.0  0.00175   -0.00304   -0.00137    -54.934211 
 131    6   28  1   0  0 0.020 01.0  0.00277   +0.15486   +0.15777     +1.879117 
 132    1    2  4   0  0 0.020 01.0  0.00175   -0.00206   +0.00050   -124.271845 
 133    1    3  4   0  0 0.020 01.0  0.00212   +0.05746   +0.06181     +7.570484 
 134    2    4  4   0  0 0.020 01.0  0.00189   +0.02285   +0.02304     +0.831510 
 135    3    4  4   0  0 0.020 01.0  0.00201   +0.04108   +0.03689    -10.199611 
 136    2    5  4   0  0 0.020 01.0  0.00202   +0.04238   +0.04094     -3.397829 
 137    2    6  4   0  0 0.020 01.0  0.00180   +0.00993   +0.01339    +34.843907 
 138    4    6  4   0  0 0.020 01.0  0.00218   -0.06738   -0.07168     +6.381716 
 139    5    7  4   0  0 0.020 01.0  0.00212   +0.05823   +0.05607     -3.709428 
 140    6    7  4   0  0 0.020 01.0  0.00175   -0.00278   +0.00212   -176.258993 
 141    6    8  4   0  0 0.020 01.0  0.00189   +0.02337   +0.02684    +14.848096 
 142    6    9  4   0  0 0.020 01.0  0.00230   -0.08440   -0.08823     +4.537915 
 143    6   10  4   0  0 0.020 01.0  0.00176   -0.00370   +0.00157   -142.432432 
 144    9   11  4   0  0 0.020 01.0  0.00265   -0.13726   -0.14420     +5.056098 
 145    9   10  4   0  0 0.020 01.0  0.00199   +0.03829   +0.03740     -2.324367 
 146    4   12  4   0  0 0.020 01.0  0.00264   +0.13588   +0.13437     -1.111275 
 147   12   13  4   0  0 0.020 01.0  0.00211   -0.05634   -0.05760     +2.236422 
 148   12   14  4   0  0 0.020 01.0  0.00186   +0.01846   +0.01414    -23.401950 
 149   12   15  4   0  0 0.020 01.0  0.00209   +0.05300   +0.05205     -1.792453 
 150   12   16  4   0  0 0.020 01.0  0.00192   +0.02771   +0.02901     +4.691447 
 151   14   15  4   0  0 0.020 01.0  0.00176   +0.00445   +0.00961   +115.955056 
 152   16   17  4   0  0 0.020 01.0  0.00182   +0.01268   +0.00962    -24.132492 
 153   15   18  4   0  0 0.020 01.0  0.00182   +0.01274   +0.01115    -12.480377 
 154   18   19  4   0  0 0.020 01.0  0.00177   +0.00510   +0.00262    -48.627451 
 155   19   20  4   0  0 0.020 01.0  0.00188   -0.02201   -0.02436    +10.676965 
 156   10   20  4   0  0 0.020 01.0  0.00193   +0.02907   +0.02546    -12.418301 
 157   10   17  4   0  0 0.020 01.0  0.00196   +0.03382   +0.02821    -16.587818 
 158   10   21  4   0  0 0.020 01.0  0.00225   +0.07716   +0.07648     -0.881286 
 159   10   22  4   0  0 0.020 01.0  0.00197   +0.03531   +0.03228     -8.581138 
 160   21   22  4   0  0 0.020 01.0  0.00181   -0.01216   -0.00815    -32.976974 
 161   15   23  4   0  0 0.020 01.0  0.00188   +0.02172   +0.02204     +1.473297 
 162   22   24  4   0  0 0.020 01.0  0.00188   +0.02256   +0.02724    +20.744681 
 163   23   24  4   0  0 0.020 01.0  0.00179   +0.00828   +0.01337    +61.473430 
 164   24   25  4   0  0 0.020 01.0  0.00189   +0.02354   +0.02451     +4.120646 
 165   25   26  4   0  0 0.020 01.0  0.00186   +0.01841   +0.01416    -23.085280 
 166   25   27  4   0  0 0.020 01.0  0.00177   +0.00486   +0.00938    +93.004115 
 167   28   27  4   0  0 0.020 01.0  0.00193   +0.02942   +0.03050     +3.670972 
 168   27   29  4   0  0 0.020 01.0  0.00182   +0.01266   +0.01684    +33.017378 
 169   27   30  4   0  0 0.020 01.0  0.00182   +0.01256   +0.01174     -6.528662 
 170   29   30  4   0  0 0.020 01.0  0.00176   +0.00467   +0.00581    +24.411135 
 171    8   28  4   0  0 0.020 01.0  0.00191   -0.02581   -0.03072    +19.023634 
 172    6   28  4   0  0 0.020 01.0  0.00174   -0.00039   +0.00403  -1133.333333 
 173    2    1  1   0  0 0.020 01.0  0.00695   -0.78250   -0.77657     -0.757827 
 174    3    1  1   0  0 0.020 01.0  0.00556   -0.57384   -0.58703     +2.298550 
 175    4    2  1   0  0 0.020 01.0  0.00441   -0.40232   -0.39702     -1.317359 
 176    4    3  1   0  0 0.020 01.0  0.00541   -0.55095   -0.55433     +0.613486 
 177    5    2  1   0  0 0.020 01.0  0.00608   -0.65168   -0.66682     +2.323226 
 178    6    2  1   0  0 0.020 01.0  0.00522   -0.52246   -0.53140     +1.711136 
 179    6    4  1   0  0 0.020 01.0  0.00542   -0.55237   -0.56053     +1.477271 
 180    7    5  1   0  0 0.020 01.0  0.00235   +0.09291   +0.08905     -4.154558 
 181    7    6  1   0  0 0.020 01.0  0.00355   -0.27291   -0.26859     -1.582939 
 182    8    6  1   0  0 0.020 01.0  0.00329   -0.23396   -0.22893     -2.149940 
 183    9    6  1   0  0 0.020 01.0  0.00347   -0.26111   -0.26012     -0.379151 
 184   10    6  1   0  0 0.020 01.0  0.00273   -0.14939   -0.14851     -0.589062 
 185   11    9  1   0  0 0.020 01.0  0.00173   +0.00000   +0.00136     +0.000000 
 186   10    9  1   0  0 0.020 01.0  0.00347   -0.26111   -0.25099     -3.875761 
 187   12    4  1   0  0 0.020 01.0  0.00423   -0.37431   -0.37090     -0.911010 
 188   13   12  1   0  0 0.020 01.0  0.00173   -0.00000   +0.00104     +0.000000 
 189   14   12  1   0  0 0.020 01.0  0.00216   -0.06385   -0.05855     -8.300705 
 190   15   12  1   0  0 0.020 01.0  0.00273   -0.14919   -0.14803     -0.777532 
 191   16   12  1   0  0 0.020 01.0  0.00220   -0.07080   -0.07298     +3.079096 
 192   15   14  1   0  0 0.020 01.0  0.00183   -0.01480   -0.00977    -33.986486 
 193   17   16  1   0  0 0.020 01.0  0.00202   -0.04271   -0.04344     +1.709202 
 194   18   15  1   0  0 0.020 01.0  0.00210   -0.05500   -0.05372     -2.327273 
 195   19   18  1   0  0 0.020 01.0  0.00193   -0.02995   -0.02739     -8.547579 
 196   20   19  1   0  0 0.020 01.0  0.00203   +0.04513   +0.04732     +4.852648 
 197   20   10  1   0  0 0.020 01.0  0.00215   -0.06213   -0.06583     +5.955255 
 198   17   10  1   0  0 0.020 01.0  0.00192   -0.02829   -0.03311    +17.037823 
 199   21   10  1   0  0 0.020 01.0  0.00251   -0.11602   -0.11942     +2.930529 
...
Número de medidores SCADA:     254
Número de PMUs:                0
Número de medidas das PMUs:    0
----------------------------------------------------------------------------------

Não há medidas de ângulo.
Não há medidores desabilitados.
============================== Estado Estimado ===================================
                 Barra     Mod(pu)    Ang(graus)              
----------------------------------------------------------------------------------
                    1            1.0598              0.00        
                    2            1.0448             -2.35        
                    3            1.0255             -4.98        
                    4            1.0169             -6.11        
                    5            1.0098             -9.47        
                    6            1.0133             -7.44        
                    7            1.0059             -8.71        
                    8            1.0094             -7.97        
                    9            1.0547            -10.30        
                   10            1.0508            -11.77        
                   11            1.0822            -10.32        
                   12            1.0631            -10.87        
                   13            1.0703            -10.87        
                   14            1.0520            -11.58        
                   15            1.0474            -11.71        
                   16            1.0515            -11.46        
                   17            1.0472            -11.85        
                   18            1.0392            -12.28        
                   19            1.0368            -12.45        
                   20            1.0399            -12.32        
                   21            1.0414            -12.08        
                   22            1.0419            -12.05        
                   23            1.0388            -12.05        
                   24            1.0342            -12.22        
                   25            1.0307            -11.64        
                   26            1.0180            -11.93        
                   27            1.0339            -11.11        
                   28            1.0103             -7.96        
                   29            1.0172            -12.06        
                   30            1.0083            -12.82        
----------------------------------------------------------------------------------
Convergiu em:    2 iteraçoes. 
----------------------------------------------------------------------------------
--- RESIDUOS NORMALIZADOS --------------------------------------------------------
   N    D    P  TP      Real     Medido   Estimado      Med-Est        rn 
----------------------------------------------------------------------------------
  31    0    1  2    +1.3813    +1.4134    +1.3926  +2.0708e-02      0.233 
  16    0   16  6    +1.0521    +1.0675    +1.0515  +1.5920e-02      0.224 
   5    0    5  6    +1.0100    +1.0241    +1.0098  +1.4385e-02      0.206 
  37    0    7  2    -0.1800    -0.1760    -0.1841  +8.0895e-03      0.203 
 192   15   14  1    -0.0148    -0.0098    -0.0177  +7.9239e-03      0.198 
  12    0   12  6    +1.0636    +1.0489    +1.0631  -1.4218e-02      0.198 
  36    0    6  2    +0.0000    -0.0047    -0.0081  +3.4217e-03      0.197 
  28    0   28  6    +1.0110    +1.0234    +1.0103  +1.3064e-02      0.187 
   3    0    3  6    +1.0262    +1.0381    +1.0255  +1.2636e-02      0.179 
  19    0   19  6    +1.0371    +1.0491    +1.0368  +1.2313e-02      0.174 
 105    4   12  1    +0.3743    +0.3866    +0.3762  +1.0402e-02      0.171 
  29    0   29  6    +1.0195    +1.0053    +1.0172  -1.1855e-02      0.171 
  30    0   30  6    +1.0106    +0.9967    +1.0083  -1.1638e-02      0.169 
  25    0   25  6    +1.0309    +1.0425    +1.0307  +1.1807e-02      0.168 
 140    6    7  4    -0.0028    +0.0021    -0.0037  +5.8694e-03      0.165 
  27    0   27  6    +1.0348    +1.0223    +1.0339  -1.1514e-02      0.163 
 244   24   22  4    -0.0223    -0.0172    -0.0236  +6.3559e-03      0.163 
 177    5    2  1    -0.6517    -0.6668    -0.6546  -1.2173e-02      0.163 
  94    3    4  1    +0.5548    +0.5699    +0.5588  +1.1025e-02      0.162 
 173    2    1  1    -0.7825    -0.7766    -0.7884  +1.1783e-02      0.160 
  24    0   24  6    +1.0350    +1.0231    +1.0342  -1.1101e-02      0.157 
 116   10   17  1    +0.0284    +0.0245    +0.0302  -5.7382e-03      0.155 
   8    0    8  6    +1.0100    +1.0199    +1.0094  +1.0484e-02      0.150 
  22    0   22  6    +1.0425    +1.0522    +1.0419  +1.0305e-02      0.145 
  35    0    5  2    -0.7440    -0.7334    -0.7436  +1.0215e-02      0.145 
 127   27   29  1    +0.0488    +0.0443    +0.0502  -5.9209e-03      0.144 
 121   22   24  1    +0.0327    +0.0272    +0.0328  -5.6661e-03      0.144 
 101    6    9  1    +0.2611    +0.2544    +0.2622  -7.7984e-03      0.143 
 175    4    2  1    -0.4023    -0.3970    -0.4062  +9.2128e-03      0.143 
  21    0   21  6    +1.0419    +1.0313    +1.0414  -1.0134e-02      0.143 
  66    0    6  5    +0.0000    -0.0019    +0.0012  -3.1227e-03      0.143 
 157   10   17  4    +0.0338    +0.0282    +0.0335  -5.3047e-03      0.140 
 228   12    4  4    -0.1018    -0.1067    -0.1005  -6.1793e-03      0.137 
   7    0    7  6    +1.0064    +0.9963    +1.0059  -9.5502e-03      0.137 
  70    0   10  5    -0.0510    -0.0488    -0.0524  +3.6682e-03      0.136 
 247   26   25  4    -0.0180    -0.0220    -0.0170  -5.0156e-03      0.136 
  99    6    7  1    +0.2749    +0.2827    +0.2757  +7.0083e-03      0.136 
 213   28    6  1    -0.1545    -0.1499    -0.1562  +6.3690e-03      0.135 
 143    6   10  4    -0.0037    +0.0016    -0.0040  +5.5298e-03      0.134 
 240   21   10  4    -0.0758    -0.0715    -0.0771  +5.6422e-03      0.132 
  87    0   27  5    +0.0000    +0.0036    +0.0001  +3.4785e-03      0.131 
 225   10    6  4    +0.0150    +0.0098    +0.0153  -5.4927e-03      0.131 
 186   10    9  1    -0.2611    -0.2510    -0.2578  +6.7715e-03      0.128 
  51    0   21  2    -0.1380    -0.1316    -0.1367  +5.1570e-03      0.127 
   1    0    1  6    +1.0600    +1.0508    +1.0598  -9.0177e-03      0.126 
 151   14   15  4    +0.0044    +0.0096    +0.0048  +4.8175e-03      0.122 
  17    0   17  6    +1.0477    +1.0385    +1.0472  -8.6730e-03      0.122 
 109   12   16  1    +0.0713    +0.0767    +0.0715  +5.2300e-03      0.122 
  18    0   18  6    +1.0395    +1.0476    +1.0392  +8.3898e-03      0.119 
 199   21   10  1    -0.1160    -0.1194    -0.1141  -5.3110e-03      0.118 
  61    0    1  5    +0.0554    +0.0523    +0.0564  -4.1464e-03      0.116 
  68    0    8  5    -0.0561    -0.0524    -0.0567  +4.2746e-03      0.116 
 108   12   15  1    +0.1507    +0.1566    +0.1510  +5.5442e-03      0.115 
 171    8   28  4    -0.0258    -0.0307    -0.0258  -4.9343e-03      0.115 
  11    0   11  6    +1.0820    +1.0739    +1.0822  -8.2263e-03      0.114 
 174    3    1  1    -0.5738    -0.5870    -0.5789  -8.1159e-03      0.113 
 223    8    6  4    -0.0303    -0.0352    -0.0309  -4.2311e-03      0.112 
 243   23   15  4    -0.0213    -0.0269    -0.0225  -4.3316e-03      0.111 
  13    0   13  6    +1.0710    +1.0624    +1.0703  -7.8234e-03      0.109 
 245   24   23  4    -0.0082    -0.0053    -0.0096  +4.2457e-03      0.109 
 144    9   11  4    -0.1373    -0.1442    -0.1394  -4.7745e-03      0.107 
 172    6   28  4    -0.0004    +0.0040    +0.0002  +3.8576e-03      0.106 
 236   19   18  4    -0.0050    -0.0097    -0.0058  -3.8566e-03      0.104 
  91    1    2  1    +0.7933    +0.7917    +0.7993  -7.5462e-03      0.103 
  34    0    4  2    -0.0230    -0.0230    -0.0251  +2.1330e-03      0.101 
 235   18   15  4    -0.0121    -0.0076    -0.0115  +3.8497e-03      0.100 
 251   30   27  4    -0.0107    -0.0074    -0.0114  +3.9929e-03      0.100 
 132    1    2  4    -0.0021    +0.0005    -0.0031  +3.6122e-03      0.099 
 181    7    6  1    -0.2729    -0.2686    -0.2737  +5.0851e-03      0.098 
  90    0   30  5    -0.0150    -0.0110    -0.0143  +3.2335e-03      0.098 
   4    0    4  6    +1.0176    +1.0101    +1.0169  -6.7578e-03      0.096 
 231   15   12  4    -0.0501    -0.0536    -0.0497  -3.9545e-03      0.095 
 163   23   24  4    +0.0083    +0.0134    +0.0097  +3.7114e-03      0.095 
 159   10   22  4    +0.0353    +0.0323    +0.0364  -4.0748e-03      0.095 
 197   20   10  1    -0.0621    -0.0658    -0.0620  -3.8412e-03      0.094 
  39    0    9  2    +0.0000    -0.0004    -0.0027  +2.3053e-03      0.094 
  83    0   23  5    -0.0130    -0.0100    -0.0129  +2.8898e-03      0.091 
 147   12   13  4    -0.0563    -0.0576    -0.0541  -3.4895e-03      0.090 
  78    0   18  5    -0.0070    -0.0084    -0.0056  -2.8653e-03      0.090 
 154   18   19  4    +0.0051    +0.0026    +0.0059  -3.2950e-03      0.089 
 218    5    2  4    -0.0039    +0.0007    -0.0027  +3.4549e-03      0.088 
 185   11    9  1    +0.0000    +0.0014    -0.0017  +3.0717e-03      0.088 
 162   22   24  4    +0.0226    +0.0272    +0.0238  +3.4027e-03      0.087 
 165   25   26  4    +0.0184    +0.0142    +0.0173  -3.1853e-03      0.087 
 187   12    4  1    -0.3743    -0.3709    -0.3762  +5.2580e-03      0.087 
 215    3    1  4    -0.0501    -0.0475    -0.0511  +3.6710e-03      0.085 
 139    5    7  4    +0.0582    +0.0561    +0.0596  -3.4968e-03      0.084 
 222    7    6  4    -0.0085    -0.0045    -0.0075  +2.9774e-03      0.082 
  89    0   29  5    -0.0070    -0.0083    -0.0109  +2.6520e-03      0.082 
  71    0   11  5    +0.1408    +0.1394    +0.1431  -3.6112e-03      0.082 
 200   22   10  1    -0.0547    -0.0501    -0.0536  +3.5859e-03      0.081 
 233   15   14  4    -0.0044    -0.0016    -0.0047  +3.1614e-03      0.080 
  54    0   24  2    -0.0690    -0.0717    -0.0690  -2.7013e-03      0.080 
 152   16   17  4    +0.0127    +0.0096    +0.0127  -3.0819e-03      0.080 
 198   17   10  1    -0.0283    -0.0331    -0.0302  -2.9416e-03      0.079 
 249   27   28  4    -0.0208    -0.0247    -0.0216  -3.0964e-03      0.079 
 241   22   10  4    -0.0347    -0.0391    -0.0358  -3.3594e-03      0.078 
 141    6    8  4    +0.0234    +0.0268    +0.0239  +2.8965e-03      0.078 
 102    6   10  1    +0.1494    +0.1452    +0.1491  -3.9186e-03      0.076 
 145    9   10  4    +0.0383    +0.0374    +0.0403  -2.9023e-03      0.075 
 214    2    1  4    -0.0242    -0.0255    -0.0226  -2.8964e-03      0.075 
 119   21   22  1    -0.0220    -0.0254    -0.0226  -2.7619e-03      0.074 
 100    6    8  1    +0.2346    +0.2281    +0.2317  -3.6518e-03      0.073 
   9    0    9  6    +1.0549    +1.0599    +1.0547  +5.2013e-03      0.073 
  69    0    9  5    +0.0000    +0.0035    +0.0016  +1.8805e-03      0.071 
  86    0   26  5    -0.0180    -0.0145    -0.0170  +2.5244e-03      0.069 
 250   29   27  4    -0.0117    -0.0117    -0.0142  +2.5340e-03      0.065 
  15    0   15  6    +1.0478    +1.0520    +1.0474  +4.6274e-03      0.065 
  14    0   14  6    +1.0518    +1.0474    +1.0520  -4.6208e-03      0.065 
 148   12   14  4    +0.0185    +0.0141    +0.0167  -2.5998e-03      0.065 
 189   14   12  1    -0.0639    -0.0585    -0.0614  +2.8142e-03      0.065 
  98    5    7  1    -0.0923    -0.0863    -0.0890  +2.6875e-03      0.065 
 179    6    4  1    -0.5524    -0.5605    -0.5562  -4.3031e-03      0.064 
 170   29   30  4    +0.0047    +0.0058    +0.0033  +2.4680e-03      0.064 
  77    0   17  5    -0.0460    -0.0479    -0.0457  -2.1496e-03      0.062 
 137    2    6  4    +0.0099    +0.0134    +0.0109  +2.5369e-03      0.062 
 226   11    9  4    +0.1408    +0.1457    +0.1431  +2.6688e-03      0.061 
...